topology/WSNs8.txt
# 08/25/93 UW ARCHIVE           100.0  1961 W IEEE 118 Bus Test Case
#BUS DATA FOLLOWS                            57 ITEMS
   1  0.000  0.500  3
   2  10.00  0.000  3
   3  1.250  10.00  3
   4  9.880  9.130  3
   5  3.250  0.810  0
   6  6.770  3.240  0
   7  3.970  7.850  0
   8  7.130  5.890  0
-999
#BRANCH DATA FOLLOWS                         80 ITEMS
   5    1   3.2647
   5    2   6.7984
   5    7   7.0767
   5    8   6.3922
   6    2   4.5749
   6    4   6.6606
   6    5   4.2773
   7    1   8.3536
   7    3   3.4671
   7    4   6.0470
   8    4   4.2497
   8    6   2.6743
-999
END OF DATA
